data/radial_test/case33bw.m
function mpc = case33bw
%CASE33BW

%% MATPOWER Case Format : Version 2
mpc.version = '2';

%%-----  Power Flow Data  -----%%
%% system MVA base
mpc.baseMVA = 10;

%% bus data
%	bus_i	type	Pd	Qd	Gs	Bs	area	Vm	Va	baseKV	zone	Vmax	Vmin
mpc.bus = [
	1	3	0	0	0	0	1	1	0	12.66	1	1	1;
	2	1	0.1	0.06	0	0	1	1	0	12.66	1	1.1	0.9;
	3	1	0.09	0.04	0	0	1	1	0	12.66	1	1.1	0.9;
	4	1	0.12	0.08	0	0	1	1	0	12.66	1	1.1	0.9;
	5	1	0.06	0.03	0	0	1	1	0	12.66	1	1.1	0.9;
	6	1	0.06	0.02	0	0	1	1	0	12.66	1	1.1	0.9;
	7	1	0.2	0.1	0	0	1	1	0	12.66	1	1.1	0.9;
	8	1	0.2	0.1	0	0	1	1	0	12.66	1	1.1	0.9;
	9	1	0.06	0.02	0	0	1	1	0	12.66	1	1.1	0.9;
	10	1	0.06	0.02	0	0	1	1	0	12.66	1	1.1	0.9;
	11	1	0.045	0.03	0	0	1	1	0	12.66	1	1.1	0.9;
	12	1	0.06	0.035	0	0	1	1	0	12.66	1	1.1	0.9;
	13	1	0.06	0.035	0	0	1	1	0	12.66	1	1.1	0.9;
	14	1	0.12	0.08	0	0	1	1	0	12.66	1	1.1	0.9;
	15	1	0.06	0.01	0	0	1	1	0	12.66	1	1.1	0.9;
	16	1	0.06	0.02	0	0	1	1	0	12.66	1	1.1	0.9;
	17	1	0.06	0.02	0	0	1	1	0	12.66	1	1.1	0.9;
	18	1	0.09	0.04	0	0	1	1	0	12.66	1	1.1	0.9;
	19	1	0.09	0.04	0	0	1	1	0	12.66	1	1.1	0.9;
	20	1	0.09	0.04	0	0	1	1	0	12.66	1	1.1	0.9;
	21	1	0.09	0.04	0	0	1	1	0	12.66	1	1.1	0.9;
	22	1	0.09	0.04	0	0	1	1	0	12.66	1	1.1	0.9;
	23	1	0.09	0.05	0	0	1	1	0	12.66	1	1.1	0.9;
	24	1	0.42	0.2	0	0	1	1	0	12.66	1	1.1	0.9;
	25	1	0.42	0.2	0	0	1	1	0	12.66	1	1.1	0.9;
	26	1	0.06	0.025	0	0	1	1	0	12.66	1	1.1	0.9;
	27	1	0.06	0.025	0	0	1	1	0	12.66	1	1.1	0.9;
	28	1	0.06	0.02	0	0	1	1	0	12.66	1	1.1	0.9;
	29	1	0.12	0.07	0	0	1	1	0	12.66	1	1.1	0.9;
	30	1	0.2	0.6	0	0	1	1	0	12.66	1	1.1	0.9;
	31	1	0.15	0.07	0	0	1	1	0	12.66	1	1.1	0.9;
	32	1	0.21	0.1	0	0	1	1	0	12.66	1	1.1	0.9;
	33	1	0.06	0.04	0	0	1	1	0	12.66	1	1.1	0.9;
];

%% generator data
%	bus	Pg	Qg	Qmax	Qmin	Vg	mBase	status	Pmax	Pmin	Pc1	Pc2	Qc1min	Qc1max	Qc2min	Qc2max	ramp_agc	ramp_10	ramp_30	ramp_q	apf
mpc.gen = [
	1	0	0	10	-10	1	100	1	10	0	0	0	0	0	0	0	0	0	0	0	0;
];

%% branch data
%	fbus	tbus	r	x	b	rateA	rateB	rateC	ratio	angle	status	angmin	angmax
mpc.branch = [
	1	2	0.00575259116	0.00293244886	0	0	0	0	0	0	1	-360	360;
	2	3	0.0307595167	0.015666764	0	0	0	0	0	0	1	-360	360;
	3	4	0.0228356656	0.0116299674	0	0	0	0	0	0	1	-360	360;
	4	5	0.0237777928	0.0121103899	0	0	0	0	0	0	1	-360	360;
	5	6	0.0510994811	0.0441115179	0	0	0	0	0	0	1	-360	360;
	6	7	0.0116798814	0.0386084969	0	0	0	0	0	0	1	-360	360;
	7	8	0.044386045	0.0146684835	0	0	0	0	0	0	1	-360	360;
	8	9	0.0642643047	0.0461704714	0	0	0	0	0	0	1	-360	360;
	9	10	0.0651378001	0.0461704714	0	0	0	0	0	0	1	-360	360;
	10	11	0.0122663712	0.00405551438	0	0	0	0	0	0	1	-360	360;
	11	12	0.0233597628	0.00772419507	0	0	0	0	0	0	1	-360	360;
	12	13	0.0915922324	0.0720633708	0	0	0	0	0	0	1	-360	360;
	13	14	0.0337917936	0.0444796338	0	0	0	0	0	0	1	-360	360;
	14	15	0.0368739846	0.0328184702	0	0	0	0	0	0	1	-360	360;
	15	16	0.0465635443	0.0340039282	0	0	0	0	0	0	1	-360	360;
	16	17	0.0804239697	0.107377542	0	0	0	0	0	0	1	-360	360;
	17	18	0.0456713311	0.0358133116	0	0	0	0	0	0	1	-360	360;
	2	19	0.0102323747	0.00976443077	0	0	0	0	0	0	1	-360	360;
	19	20	0.0938508419	0.0845668336	0	0	0	0	0	0	1	-360	360;
	20	21	0.0255497406	0.0298485858	0	0	0	0	0	0	1	-360	360;
	21	22	0.0442300637	0.0584805173	0	0	0	0	0	0	1	-360	360;
	3	23	0.028151509	0.0192356167	0	0	0	0	0	0	1	-360	360;
	23	24	0.0560284909	0.0442425422	0	0	0	0	0	0	1	-360	360;
	24	25	0.0559037059	0.043743402	0	0	0	0	0	0	1	-360	360;
	6	26	0.0126656834	0.00645138749	0	0	0	0	0	0	1	-360	360;
	26	27	0.0177319567	0.00902819893	0	0	0	0	0	0	1	-360	360;
	27	28	0.0660736881	0.0582559042	0	0	0	0	0	0	1	-360	360;
	28	29	0.0501760717	0.0437122057	0	0	0	0	0	0	1	-360	360;
	29	30	0.0316642084	0.0161284687	0	0	0	0	0	0	1	-360	360;
	30	31	0.0607952801	0.0600840053	0	0	0	0	0	0	1	-360	360;
	31	32	0.0193728802	0.0225798562	0	0	0	0	0	0	1	-360	360;
	32	33	0.0212758523	0.0330805188	0	0	0	0	0	0	1	-360	360;
	21	8	0.124785058	0.124785058	0	0	0	0	0	0	0	-360	360;
	9	15	0.124785058	0.124785058	0	0	0	0	0	0	0	-360	360;
	12	22	0.124785058	0.124785058	0	0	0	0	0	0	0	-360	360;
	18	33	0.0311962644	0.0311962644	0	0	0	0	0	0	0	-360	360;
	25	29	0.0311962644	0.0311962644	0	0	0	0	0	0	0	-360	360;
];

%%-----  OPF Data  -----%%
%% generator cost data
%	1	startup	shutdown	n	x1	y1	...	xn	yn
%	2	startup	shutdown	n	c(n-1)	...	c0
mpc.gencost = [
	2	0	0	3	0	20	0;
];
